data_MgMOF-74-1x1x1-P1-VASP_charged

_audit_creation_method RASPA-1.0
_audit_creation_date 2023-6-5
_audit_author_name ''

_cell_length_a    26.136
_cell_length_b    26.136
_cell_length_c    13.884
_cell_angle_alpha 90
_cell_angle_beta  90
_cell_angle_gamma 120
_cell_volume      8213.41

_symmetry_cell_setting          triclinic
_symmetry_space_group_name_Hall 'P 1'
_symmetry_space_group_name_H-M  'P 1'
_symmetry_Int_Tables_number     1

_symmetry_equiv_pos_as_xyz 'x,y,z'

loop_
_atom_site_label
_atom_site_type_symbol
_atom_site_fract_x
_atom_site_fract_y
_atom_site_fract_z
_atom_site_charge
Mg       Mg     0.641590000000     0.685140000000     0.235945000000     0          
Mg       Mg     0.314860000000     0.956450000000     0.235945000000     0          
Mg       Mg     0.043550000000     0.358410000000     0.235945000000     0          
Mg       Mg     0.358410000000     0.314860000000     0.264055000000     0          
Mg       Mg     0.685140000000     0.043550000000     0.264055000000     0          
Mg       Mg     0.956450000000     0.641590000000     0.264055000000     0          
Mg       Mg     0.308260000000     0.018470000000     0.402610000000     0          
Mg       Mg     0.981530000000     0.289780000000     0.402610000000     0          
Mg       Mg     0.710220000000     0.691740000000     0.402610000000     0          
Mg       Mg     0.025080000000     0.648190000000     0.430720000000     0          
Mg       Mg     0.351810000000     0.376880000000     0.430720000000     0          
Mg       Mg     0.623120000000     0.974920000000     0.430720000000     0          
Mg       Mg     0.974920000000     0.351810000000     0.069280000000     0          
Mg       Mg     0.648190000000     0.623120000000     0.069280000000     0          
Mg       Mg     0.376880000000     0.025080000000     0.069280000000     0          
Mg       Mg     0.691740000000     0.981530000000     0.097390000000     0          
Mg       Mg     0.018470000000     0.710220000000     0.097390000000     0          
Mg       Mg     0.289780000000     0.308260000000     0.097390000000     0          
O        O      0.969430000000     0.297760000000     0.180190000000     0          
O        O      0.702240000000     0.671670000000     0.180190000000     0          
O        O      0.328330000000     0.030570000000     0.180190000000     0          
O        O      0.030570000000     0.702240000000     0.319810000000     0          
O        O      0.297760000000     0.328330000000     0.319810000000     0          
O        O      0.671670000000     0.969430000000     0.319810000000     0          
O        O      0.636100000000     0.631090000000     0.346855000000     0          
O        O      0.368910000000     0.005000000000     0.346855000000     0          
O        O      0.995000000000     0.363900000000     0.346855000000     0          
O        O      0.697240000000     0.035570000000     0.486475000000     0          
O        O      0.964430000000     0.661660000000     0.486475000000     0          
O        O      0.338340000000     0.302760000000     0.486475000000     0          
O        O      0.302760000000     0.964430000000     0.013525000000     0          
O        O      0.035570000000     0.338340000000     0.013525000000     0          
O        O      0.661660000000     0.697240000000     0.013525000000     0          
O        O      0.363900000000     0.368910000000     0.153145000000     0          
O        O      0.631090000000     0.995000000000     0.153145000000     0          
O        O      0.005000000000     0.636100000000     0.153145000000     0          
O        O      0.927630000000     0.230480000000     0.305100000000     0          
O        O      0.769520000000     0.697150000000     0.305100000000     0          
O        O      0.302850000000     0.072370000000     0.305100000000     0          
O        O      0.072370000000     0.769520000000     0.194900000000     0          
O        O      0.230480000000     0.302850000000     0.194900000000     0          
O        O      0.697150000000     0.927630000000     0.194900000000     0          
O        O      0.594300000000     0.563810000000     0.471765000000     0          
O        O      0.436190000000     0.030480000000     0.471765000000     0          
O        O      0.969520000000     0.405700000000     0.471765000000     0          
O        O      0.739040000000     0.102850000000     0.361565000000     0          
O        O      0.897150000000     0.636180000000     0.361565000000     0          
O        O      0.363820000000     0.260960000000     0.361565000000     0          
O        O      0.260960000000     0.897150000000     0.138435000000     0          
O        O      0.102850000000     0.363820000000     0.138435000000     0          
O        O      0.636180000000     0.739040000000     0.138435000000     0          
O        O      0.405700000000     0.436190000000     0.028235000000     0          
O        O      0.563810000000     0.969520000000     0.028235000000     0          
O        O      0.030480000000     0.594300000000     0.028235000000     0          
O        O      0.254940000000     0.942050000000     0.336915000000     0          
O        O      0.057950000000     0.312890000000     0.336915000000     0          
O        O      0.687110000000     0.745060000000     0.336915000000     0          
O        O      0.745060000000     0.057950000000     0.163085000000     0          
O        O      0.942050000000     0.687110000000     0.163085000000     0          
O        O      0.312890000000     0.254940000000     0.163085000000     0          
O        O      0.921610000000     0.275380000000     0.003580000000     0          
O        O      0.724620000000     0.646220000000     0.003580000000     0          
O        O      0.353780000000     0.078390000000     0.003580000000     0          
O        O      0.411730000000     0.391280000000     0.329750000000     0          
O        O      0.608720000000     0.020440000000     0.329750000000     0          
O        O      0.979560000000     0.588270000000     0.329750000000     0          
O        O      0.588270000000     0.608720000000     0.170250000000     0          
O        O      0.391280000000     0.979560000000     0.170250000000     0          
O        O      0.020440000000     0.411730000000     0.170250000000     0          
O        O      0.078390000000     0.724620000000     0.496420000000     0          
O        O      0.275380000000     0.353780000000     0.496420000000     0          
O        O      0.646220000000     0.921610000000     0.496420000000     0          
C        C      0.926670000000     0.245800000000     0.213515000000     0          
C        C      0.754200000000     0.680870000000     0.213515000000     0          
C        C      0.319130000000     0.073330000000     0.213515000000     0          
C        C      0.073330000000     0.754200000000     0.286485000000     0          
C        C      0.245800000000     0.319130000000     0.286485000000     0          
C        C      0.680870000000     0.926670000000     0.286485000000     0          
C        C      0.593340000000     0.579130000000     0.380180000000     0          
C        C      0.420870000000     0.014200000000     0.380180000000     0          
C        C      0.985800000000     0.406660000000     0.380180000000     0          
C        C      0.740000000000     0.087530000000     0.453150000000     0          
C        C      0.912470000000     0.652460000000     0.453150000000     0          
C        C      0.347540000000     0.260000000000     0.453150000000     0          
C        C      0.260000000000     0.912470000000     0.046850000000     0          
C        C      0.087530000000     0.347540000000     0.046850000000     0          
C        C      0.652460000000     0.740000000000     0.046850000000     0          
C        C      0.406660000000     0.420870000000     0.119820000000     0          
C        C      0.579130000000     0.985800000000     0.119820000000     0          
C        C      0.014200000000     0.593340000000     0.119820000000     0          
C        C      0.879180000000     0.207110000000     0.145415000000     0          
C        C      0.792890000000     0.672070000000     0.145415000000     0          
C        C      0.327930000000     0.120820000000     0.145415000000     0          
C        C      0.120820000000     0.792890000000     0.354585000000     0          
C        C      0.207110000000     0.327930000000     0.354585000000     0          
C        C      0.672070000000     0.879180000000     0.354585000000     0          
C        C      0.545850000000     0.540440000000     0.312080000000     0          
C        C      0.459560000000     0.005400000000     0.312080000000     0          
C        C      0.994600000000     0.454150000000     0.312080000000     0          
C        C      0.787490000000     0.126220000000     0.021250000000     0          
C        C      0.873780000000     0.661260000000     0.021250000000     0          
C        C      0.338740000000     0.212510000000     0.021250000000     0          
C        C      0.212510000000     0.873780000000     0.478750000000     0          
C        C      0.126220000000     0.338740000000     0.478750000000     0          
C        C      0.661260000000     0.787490000000     0.478750000000     0          
C        C      0.454150000000     0.459560000000     0.187920000000     0          
C        C      0.540440000000     0.994600000000     0.187920000000     0          
C        C      0.005400000000     0.545850000000     0.187920000000     0          
C        C      0.212540000000     0.889260000000     0.377450000000     0          
C        C      0.110740000000     0.323280000000     0.377450000000     0          
C        C      0.676720000000     0.787460000000     0.377450000000     0          
C        C      0.787460000000     0.110740000000     0.122550000000     0          
C        C      0.889260000000     0.676720000000     0.122550000000     0          
C        C      0.323280000000     0.212540000000     0.122550000000     0          
C        C      0.879210000000     0.222590000000     0.044115000000     0          
C        C      0.777410000000     0.656610000000     0.044115000000     0          
C        C      0.343390000000     0.120790000000     0.044115000000     0          
C        C      0.454130000000     0.444070000000     0.289215000000     0          
C        C      0.555930000000     0.010050000000     0.289215000000     0          
C        C      0.989950000000     0.545870000000     0.289215000000     0          
C        C      0.545870000000     0.555930000000     0.210785000000     0          
C        C      0.444070000000     0.989950000000     0.210785000000     0          
C        C      0.010050000000     0.454130000000     0.210785000000     0          
C        C      0.120790000000     0.777410000000     0.455885000000     0          
C        C      0.222590000000     0.343390000000     0.455885000000     0          
C        C      0.656610000000     0.879210000000     0.455885000000     0          
C        C      0.166300000000     0.847590000000     0.317790000000     0          
C        C      0.152410000000     0.318710000000     0.317790000000     0          
C        C      0.681290000000     0.833700000000     0.317790000000     0          
C        C      0.833700000000     0.152410000000     0.182210000000     0          
C        C      0.847590000000     0.681290000000     0.182210000000     0          
C        C      0.318710000000     0.166300000000     0.182210000000     0          
C        C      0.832970000000     0.180920000000     0.484455000000     0          
C        C      0.819080000000     0.652040000000     0.484455000000     0          
C        C      0.347960000000     0.167030000000     0.484455000000     0          
C        C      0.500370000000     0.485740000000     0.348875000000     0          
C        C      0.514260000000     0.014620000000     0.348875000000     0          
C        C      0.985380000000     0.499630000000     0.348875000000     0          
C        C      0.499630000000     0.514260000000     0.151125000000     0          
C        C      0.485740000000     0.985380000000     0.151125000000     0          
C        C      0.014620000000     0.500370000000     0.151125000000     0          
C        C      0.167030000000     0.819080000000     0.015545000000     0          
C        C      0.180920000000     0.347960000000     0.015545000000     0          
C        C      0.652040000000     0.832970000000     0.015545000000     0          
H        H      0.165290000000     0.858030000000     0.239590000000     0          
H        H      0.141970000000     0.307260000000     0.239590000000     0          
H        H      0.692740000000     0.834710000000     0.239590000000     0          
H        H      0.834710000000     0.141970000000     0.260410000000     0          
H        H      0.858030000000     0.692740000000     0.260410000000     0          
H        H      0.307260000000     0.165290000000     0.260410000000     0          
H        H      0.831960000000     0.191360000000     0.406255000000     0          
H        H      0.808640000000     0.640590000000     0.406255000000     0          
H        H      0.359410000000     0.168040000000     0.406255000000     0          
H        H      0.501380000000     0.475300000000     0.427075000000     0          
H        H      0.524700000000     0.026070000000     0.427075000000     0          
H        H      0.973930000000     0.498620000000     0.427075000000     0          
H        H      0.498620000000     0.524700000000     0.072925000000     0          
H        H      0.475300000000     0.973930000000     0.072925000000     0          
H        H      0.026070000000     0.501380000000     0.072925000000     0          
H        H      0.168040000000     0.808640000000     0.093745000000     0          
H        H      0.191360000000     0.359410000000     0.093745000000     0          
H        H      0.640590000000     0.831960000000     0.093745000000     0          
Mg       Mg     0.641590000000     0.685140000000     0.735945000000     0          
Mg       Mg     0.314860000000     0.956450000000     0.735945000000     0          
Mg       Mg     0.043550000000     0.358410000000     0.735945000000     0          
Mg       Mg     0.358410000000     0.314860000000     0.764055000000     0          
Mg       Mg     0.685140000000     0.043550000000     0.764055000000     0          
Mg       Mg     0.956450000000     0.641590000000     0.764055000000     0          
Mg       Mg     0.308260000000     0.018470000000     0.902610000000     0          
Mg       Mg     0.981530000000     0.289780000000     0.902610000000     0          
Mg       Mg     0.710220000000     0.691740000000     0.902610000000     0          
Mg       Mg     0.025080000000     0.648190000000     0.930720000000     0          
Mg       Mg     0.351810000000     0.376880000000     0.930720000000     0          
Mg       Mg     0.623120000000     0.974920000000     0.930720000000     0          
Mg       Mg     0.974920000000     0.351810000000     0.569280000000     0          
Mg       Mg     0.648190000000     0.623120000000     0.569280000000     0          
Mg       Mg     0.376880000000     0.025080000000     0.569280000000     0          
Mg       Mg     0.691740000000     0.981530000000     0.597390000000     0          
Mg       Mg     0.018470000000     0.710220000000     0.597390000000     0          
Mg       Mg     0.289780000000     0.308260000000     0.597390000000     0          
O        O      0.969430000000     0.297760000000     0.680190000000     0          
O        O      0.702240000000     0.671670000000     0.680190000000     0          
O        O      0.328330000000     0.030570000000     0.680190000000     0          
O        O      0.030570000000     0.702240000000     0.819810000000     0          
O        O      0.297760000000     0.328330000000     0.819810000000     0          
O        O      0.671670000000     0.969430000000     0.819810000000     0          
O        O      0.636100000000     0.631090000000     0.846855000000     0          
O        O      0.368910000000     0.005000000000     0.846855000000     0          
O        O      0.995000000000     0.363900000000     0.846855000000     0          
O        O      0.697240000000     0.035570000000     0.986475000000     0          
O        O      0.964430000000     0.661660000000     0.986475000000     0          
O        O      0.338340000000     0.302760000000     0.986475000000     0          
O        O      0.302760000000     0.964430000000     0.513525000000     0          
O        O      0.035570000000     0.338340000000     0.513525000000     0          
O        O      0.661660000000     0.697240000000     0.513525000000     0          
O        O      0.363900000000     0.368910000000     0.653145000000     0          
O        O      0.631090000000     0.995000000000     0.653145000000     0          
O        O      0.005000000000     0.636100000000     0.653145000000     0          
O        O      0.927630000000     0.230480000000     0.805100000000     0          
O        O      0.769520000000     0.697150000000     0.805100000000     0          
O        O      0.302850000000     0.072370000000     0.805100000000     0          
O        O      0.072370000000     0.769520000000     0.694900000000     0          
O        O      0.230480000000     0.302850000000     0.694900000000     0          
O        O      0.697150000000     0.927630000000     0.694900000000     0          
O        O      0.594300000000     0.563810000000     0.971765000000     0          
O        O      0.436190000000     0.030480000000     0.971765000000     0          
O        O      0.969520000000     0.405700000000     0.971765000000     0          
O        O      0.739040000000     0.102850000000     0.861565000000     0          
O        O      0.897150000000     0.636180000000     0.861565000000     0          
O        O      0.363820000000     0.260960000000     0.861565000000     0          
O        O      0.260960000000     0.897150000000     0.638435000000     0          
O        O      0.102850000000     0.363820000000     0.638435000000     0          
O        O      0.636180000000     0.739040000000     0.638435000000     0          
O        O      0.405700000000     0.436190000000     0.528235000000     0          
O        O      0.563810000000     0.969520000000     0.528235000000     0          
O        O      0.030480000000     0.594300000000     0.528235000000     0          
O        O      0.254940000000     0.942050000000     0.836915000000     0          
O        O      0.057950000000     0.312890000000     0.836915000000     0          
O        O      0.687110000000     0.745060000000     0.836915000000     0          
O        O      0.745060000000     0.057950000000     0.663085000000     0          
O        O      0.942050000000     0.687110000000     0.663085000000     0          
O        O      0.312890000000     0.254940000000     0.663085000000     0          
O        O      0.921610000000     0.275380000000     0.503580000000     0          
O        O      0.724620000000     0.646220000000     0.503580000000     0          
O        O      0.353780000000     0.078390000000     0.503580000000     0          
O        O      0.411730000000     0.391280000000     0.829750000000     0          
O        O      0.608720000000     0.020440000000     0.829750000000     0          
O        O      0.979560000000     0.588270000000     0.829750000000     0          
O        O      0.588270000000     0.608720000000     0.670250000000     0          
O        O      0.391280000000     0.979560000000     0.670250000000     0          
O        O      0.020440000000     0.411730000000     0.670250000000     0          
O        O      0.078390000000     0.724620000000     0.996420000000     0          
O        O      0.275380000000     0.353780000000     0.996420000000     0          
O        O      0.646220000000     0.921610000000     0.996420000000     0          
C        C      0.926670000000     0.245800000000     0.713515000000     0          
C        C      0.754200000000     0.680870000000     0.713515000000     0          
C        C      0.319130000000     0.073330000000     0.713515000000     0          
C        C      0.073330000000     0.754200000000     0.786485000000     0          
C        C      0.245800000000     0.319130000000     0.786485000000     0          
C        C      0.680870000000     0.926670000000     0.786485000000     0          
C        C      0.593340000000     0.579130000000     0.880180000000     0          
C        C      0.420870000000     0.014200000000     0.880180000000     0          
C        C      0.985800000000     0.406660000000     0.880180000000     0          
C        C      0.740000000000     0.087530000000     0.953150000000     0          
C        C      0.912470000000     0.652460000000     0.953150000000     0          
C        C      0.347540000000     0.260000000000     0.953150000000     0          
C        C      0.260000000000     0.912470000000     0.546850000000     0          
C        C      0.087530000000     0.347540000000     0.546850000000     0          
C        C      0.652460000000     0.740000000000     0.546850000000     0          
C        C      0.406660000000     0.420870000000     0.619820000000     0          
C        C      0.579130000000     0.985800000000     0.619820000000     0          
C        C      0.014200000000     0.593340000000     0.619820000000     0          
C        C      0.879180000000     0.207110000000     0.645415000000     0          
C        C      0.792890000000     0.672070000000     0.645415000000     0          
C        C      0.327930000000     0.120820000000     0.645415000000     0          
C        C      0.120820000000     0.792890000000     0.854585000000     0          
C        C      0.207110000000     0.327930000000     0.854585000000     0          
C        C      0.672070000000     0.879180000000     0.854585000000     0          
C        C      0.545850000000     0.540440000000     0.812080000000     0          
C        C      0.459560000000     0.005400000000     0.812080000000     0          
C        C      0.994600000000     0.454150000000     0.812080000000     0          
C        C      0.787490000000     0.126220000000     0.521250000000     0          
C        C      0.873780000000     0.661260000000     0.521250000000     0          
C        C      0.338740000000     0.212510000000     0.521250000000     0          
C        C      0.212510000000     0.873780000000     0.978750000000     0          
C        C      0.126220000000     0.338740000000     0.978750000000     0          
C        C      0.661260000000     0.787490000000     0.978750000000     0          
C        C      0.454150000000     0.459560000000     0.687920000000     0          
C        C      0.540440000000     0.994600000000     0.687920000000     0          
C        C      0.005400000000     0.545850000000     0.687920000000     0          
C        C      0.212540000000     0.889260000000     0.877450000000     0          
C        C      0.110740000000     0.323280000000     0.877450000000     0          
C        C      0.676720000000     0.787460000000     0.877450000000     0          
C        C      0.787460000000     0.110740000000     0.622550000000     0          
C        C      0.889260000000     0.676720000000     0.622550000000     0          
C        C      0.323280000000     0.212540000000     0.622550000000     0          
C        C      0.879210000000     0.222590000000     0.544115000000     0          
C        C      0.777410000000     0.656610000000     0.544115000000     0          
C        C      0.343390000000     0.120790000000     0.544115000000     0          
C        C      0.454130000000     0.444070000000     0.789215000000     0          
C        C      0.555930000000     0.010050000000     0.789215000000     0          
C        C      0.989950000000     0.545870000000     0.789215000000     0          
C        C      0.545870000000     0.555930000000     0.710785000000     0          
C        C      0.444070000000     0.989950000000     0.710785000000     0          
C        C      0.010050000000     0.454130000000     0.710785000000     0          
C        C      0.120790000000     0.777410000000     0.955885000000     0          
C        C      0.222590000000     0.343390000000     0.955885000000     0          
C        C      0.656610000000     0.879210000000     0.955885000000     0          
C        C      0.166300000000     0.847590000000     0.817790000000     0          
C        C      0.152410000000     0.318710000000     0.817790000000     0          
C        C      0.681290000000     0.833700000000     0.817790000000     0          
C        C      0.833700000000     0.152410000000     0.682210000000     0          
C        C      0.847590000000     0.681290000000     0.682210000000     0          
C        C      0.318710000000     0.166300000000     0.682210000000     0          
C        C      0.832970000000     0.180920000000     0.984455000000     0          
C        C      0.819080000000     0.652040000000     0.984455000000     0          
C        C      0.347960000000     0.167030000000     0.984455000000     0          
C        C      0.500370000000     0.485740000000     0.848875000000     0          
C        C      0.514260000000     0.014620000000     0.848875000000     0          
C        C      0.985380000000     0.499630000000     0.848875000000     0          
C        C      0.499630000000     0.514260000000     0.651125000000     0          
C        C      0.485740000000     0.985380000000     0.651125000000     0          
C        C      0.014620000000     0.500370000000     0.651125000000     0          
C        C      0.167030000000     0.819080000000     0.515545000000     0          
C        C      0.180920000000     0.347960000000     0.515545000000     0          
C        C      0.652040000000     0.832970000000     0.515545000000     0          
H        H      0.165290000000     0.858030000000     0.739590000000     0          
H        H      0.141970000000     0.307260000000     0.739590000000     0          
H        H      0.692740000000     0.834710000000     0.739590000000     0          
H        H      0.834710000000     0.141970000000     0.760410000000     0          
H        H      0.858030000000     0.692740000000     0.760410000000     0          
H        H      0.307260000000     0.165290000000     0.760410000000     0          
H        H      0.831960000000     0.191360000000     0.906255000000     0          
H        H      0.808640000000     0.640590000000     0.906255000000     0          
H        H      0.359410000000     0.168040000000     0.906255000000     0          
H        H      0.501380000000     0.475300000000     0.927075000000     0          
H        H      0.524700000000     0.026070000000     0.927075000000     0          
H        H      0.973930000000     0.498620000000     0.927075000000     0          
H        H      0.498620000000     0.524700000000     0.572925000000     0          
H        H      0.475300000000     0.973930000000     0.572925000000     0          
H        H      0.026070000000     0.501380000000     0.572925000000     0          
H        H      0.168040000000     0.808640000000     0.593745000000     0          
H        H      0.191360000000     0.359410000000     0.593745000000     0          
H        H      0.640590000000     0.831960000000     0.593745000000     0          


