data_al-bicycle-2_auto_mercury-addedH-new-forcefield-RASPA-with-charge

_audit_creation_method RASPA-1.0
_audit_creation_date 2021-12-18
_audit_author_name 'Zhao Li'

_cell_length_a    6.60045
_cell_length_b    12.8298
_cell_length_c    16.4513
_cell_angle_alpha 90
_cell_angle_beta  90
_cell_angle_gamma 90
_cell_volume      1393.14

_symmetry_cell_setting          orthorhombic
_symmetry_space_group_name_Hall 'P 1'
_symmetry_space_group_name_H-M  'P 1'
_symmetry_Int_Tables_number     1

_symmetry_equiv_pos_as_xyz 'x,y,z'

loop_
_atom_site_label
_atom_site_type_symbol
_atom_site_fract_x
_atom_site_fract_y
_atom_site_fract_z
_atom_site_charge
Al       Al     0.000000000000     0.000000000000     0.990488300000     1.65042    
OH       O      0.750000000000     0.063330000000     0.990360000000    -0.98778    
HH       H      0.750000000000     0.137300000000     0.990360000000     0.43303    
o        O      0.913340000000     0.906460000000     0.905570000000    -0.60619    
o        O      0.577640000000     0.595560000000     0.570680000000    -0.60619    
c        C      0.750000000000     0.879630000000     0.877750000000     0.64584    
c        C      0.750000000000     0.621210000000     0.599550000000     0.64584    
C       C      0.750000000000     0.808530000000     0.807950000000     0.010785   
C       C      0.750000000000     0.685190000000     0.681640000000     0.010785   
C       C      0.936787000000     0.665920000000     0.728050000000    -0.17502    
H       H      1.056615     0.682897000000     0.694392000000     0.08883    
H       H      0.944830000000     0.591597000000     0.743824000000     0.08883    
C       C      0.933886000000     0.734920000000     0.804540000000    -0.17502    
H       H      1.059593     0.777070000000     0.806127000000     0.08883    
H       H      0.932885000000     0.689716000000     0.853311000000     0.08883    
C       C      0.750000000000     0.865210000000     0.733240000000    -0.17502    
H       H      0.871217000000     0.910699000000     0.731425000000     0.08883    
C       C      0.750000000000     0.793010000000     0.658030000000    -0.17502    
H       H      0.628639000000     0.807627000000     0.624592000000     0.08883    
o        O      0.586540000000     0.906460000000     0.905570000000    -0.60619    
C       C      0.566086000000     0.734920000000     0.804540000000    -0.17502    
H       H      0.440407000000     0.777070000000     0.806127000000     0.08883    
H       H      0.567115000000     0.689716000000     0.853311000000     0.08883    
H       H      0.628783000000     0.910699000000     0.731425000000     0.08883    
o        O      0.922240000000     0.595560000000     0.570680000000    -0.60619    
C       C      0.563187000000     0.665920000000     0.728050000000    -0.17502    
H       H      0.443385000000     0.682897000000     0.694392000000     0.08883    
H       H      0.555170000000     0.591597000000     0.743824000000     0.08883    
H       H      0.871361000000     0.807627000000     0.624592000000     0.08883    
Al       Al     0.500000000000     0.000000000000     0.990488300000     1.65042    
Al       Al     0.500000000000     0.500000000000     0.490488300000     1.65042    
Al       Al     0.000000000000     0.500000000000     0.490488300000     1.65042    
OH       O      0.250000000000     0.936670000000     0.990360000000    -0.98778    
HH       H      0.250000000000     0.862700000000     0.990360000000     0.43303    
o        O      0.086660000000     0.093540000000     0.905570000000    -0.60619    
o        O      0.077760000000     0.095640000000     0.070720000000    -0.60619    
o        O      0.922240000000     0.904360000000     0.070720000000    -0.60619    
o        O      0.422360000000     0.404440000000     0.570680000000    -0.60619    
c        C      0.250000000000     0.120370000000     0.877750000000     0.64584    
c        C      0.250000000000     0.378790000000     0.599550000000     0.64584    
C       C      0.250000000000     0.191470000000     0.807950000000     0.010785   
C       C      0.250000000000     0.314810000000     0.681640000000     0.010785   
C       C      0.063213000000     0.334080000000     0.728050000000    -0.17502    
H       H     -0.056615     0.317103000000     0.694392000000     0.08883    
H       H      0.055170000000     0.408403000000     0.743824000000     0.08883    
C       C      0.066114000000     0.265080000000     0.804540000000    -0.17502    
H       H     -0.059593     0.222930000000     0.806127000000     0.08883    
H       H      0.067115000000     0.310284000000     0.853311000000     0.08883    
C       C      0.250000000000     0.134790000000     0.733240000000    -0.17502    
H       H      0.128783000000     0.089301000000     0.731425000000     0.08883    
C       C      0.250000000000     0.206990000000     0.658030000000    -0.17502    
H       H      0.371361000000     0.192373000000     0.624592000000     0.08883    
o        O      0.413460000000     0.093540000000     0.905570000000    -0.60619    
C       C      0.433914000000     0.265080000000     0.804540000000    -0.17502    
H       H      0.559593000000     0.222930000000     0.806127000000     0.08883    
H       H      0.432885000000     0.310284000000     0.853311000000     0.08883    
H       H      0.371217000000     0.089301000000     0.731425000000     0.08883    
o        O      0.077760000000     0.404440000000     0.570680000000    -0.60619    
C       C      0.436813000000     0.334080000000     0.728050000000    -0.17502    
H       H      0.556615000000     0.317103000000     0.694392000000     0.08883    
H       H      0.444830000000     0.408403000000     0.743824000000     0.08883    
H       H      0.128639000000     0.192373000000     0.624592000000     0.08883    
o        O      0.422240000000     0.095640000000     0.070720000000    -0.60619    
o        O      0.577760000000     0.904360000000     0.070720000000    -0.60619    
OH       O      0.250000000000     0.563330000000     0.490360000000    -0.98778    
HH       H      0.250000000000     0.637300000000     0.490360000000     0.43303    
o        O      0.413340000000     0.406460000000     0.405570000000    -0.60619    
c        C      0.250000000000     0.379630000000     0.377750000000     0.64584    
c        C      0.250000000000     0.121210000000     0.099550000000     0.64584    
C       C      0.250000000000     0.308530000000     0.307950000000     0.010785   
C       C      0.250000000000     0.185190000000     0.181640000000     0.010785   
C       C      0.436787000000     0.165920000000     0.228050000000    -0.17502    
H       H      0.556615000000     0.182897000000     0.194392000000     0.08883    
H       H      0.444830000000     0.091597000000     0.243824000000     0.08883    
C       C      0.433886000000     0.234920000000     0.304540000000    -0.17502    
H       H      0.559593000000     0.277070000000     0.306127000000     0.08883    
H       H      0.432885000000     0.189716000000     0.353311000000     0.08883    
C       C      0.250000000000     0.365210000000     0.233240000000    -0.17502    
H       H      0.371217000000     0.410699000000     0.231425000000     0.08883    
C       C      0.250000000000     0.293010000000     0.158030000000    -0.17502    
H       H      0.128639000000     0.307627000000     0.124592000000     0.08883    
o        O      0.086540000000     0.406460000000     0.405570000000    -0.60619    
C       C      0.066086000000     0.234920000000     0.304540000000    -0.17502    
H       H     -0.059593     0.277070000000     0.306127000000     0.08883    
H       H      0.067115000000     0.189716000000     0.353311000000     0.08883    
H       H      0.128783000000     0.410699000000     0.231425000000     0.08883    
C       C      0.063187000000     0.165920000000     0.228050000000    -0.17502    
H       H      -0.056615     0.182897000000     0.194392000000     0.08883    
H       H      0.055170000000     0.091597000000     0.243824000000     0.08883    
H       H      0.371361000000     0.307627000000     0.124592000000     0.08883    
OH       O      0.750000000000     0.436670000000     0.490360000000    -0.98778    
HH       H      0.750000000000     0.362700000000     0.490360000000     0.43303    
o        O      0.586660000000     0.593540000000     0.405570000000    -0.60619    
c        C      0.750000000000     0.620370000000     0.377750000000     0.64584    
c        C      0.750000000000     0.878790000000     0.099550000000     0.64584    
C       C      0.750000000000     0.691470000000     0.307950000000     0.010785   
C       C      0.750000000000     0.814810000000     0.181640000000     0.010785   
C       C      0.563213000000     0.834080000000     0.228050000000    -0.17502    
H       H      0.443385000000     0.817103000000     0.194392000000     0.08883    
H       H      0.555170000000     0.908403000000     0.243824000000     0.08883    
C       C      0.566114000000     0.765080000000     0.304540000000    -0.17502    
H       H      0.440407000000     0.722930000000     0.306127000000     0.08883    
H       H      0.567115000000     0.810284000000     0.353311000000     0.08883    
C       C      0.750000000000     0.634790000000     0.233240000000    -0.17502    
H       H      0.628783000000     0.589301000000     0.231425000000     0.08883    
C       C      0.750000000000     0.706990000000     0.158030000000    -0.17502    
H       H      0.871361000000     0.692373000000     0.124592000000     0.08883    
o        O      0.913460000000     0.593540000000     0.405570000000    -0.60619    
C       C      0.933914000000     0.765080000000     0.304540000000    -0.17502    
H       H      1.059593     0.722930000000     0.306127000000     0.08883    
H       H      0.932885000000     0.810284000000     0.353311000000     0.08883    
H       H      0.871217000000     0.589301000000     0.231425000000     0.08883    
C       C      0.936813000000     0.834080000000     0.228050000000    -0.17502    
H       H      1.056615     0.817103000000     0.194392000000     0.08883    
H       H      0.944830000000     0.908403000000     0.243824000000     0.08883    
H       H      0.628639000000     0.692373000000     0.124592000000     0.08883    
