data_MgMOF74_qmof-aa922ec

_audit_creation_method RASPA-1.0
_audit_creation_date 2024-3-25
_audit_author_name 'Kaihang Shi'

_cell_length_a    13.7788
_cell_length_b    15.2315
_cell_length_c    15.2323
_cell_angle_alpha 117.771
_cell_angle_beta  98.6777
_cell_angle_gamma 98.6743
_cell_volume      2705.41

_symmetry_cell_setting          triclinic
_symmetry_space_group_name_Hall 'P 1'
_symmetry_space_group_name_H-M  'P 1'
_symmetry_Int_Tables_number     1

_symmetry_equiv_pos_as_xyz 'x,y,z'

loop_
_atom_site_label
_atom_site_type_symbol
_atom_site_fract_x
_atom_site_fract_y
_atom_site_fract_z
_atom_site_charge
Mg       Mg     0.008755000000     0.731770000000     0.406050000000     0          
Mg       Mg     0.142905000000     0.674240000000     0.268210000000     0          
Mg       Mg     0.305715000000     0.593920000000     0.325740000000     0          
Mg       Mg     0.491245000000     0.268230000000     0.593950000000     0          
Mg       Mg     0.357095000000     0.325760000000     0.731790000000     0          
Mg       Mg     0.194285000000     0.406080000000     0.674260000000     0          
H        H      0.342975000000     0.554750000000     0.532730000000     0          
H        H      0.065575000000     0.977960000000     0.445240000000     0          
H        H      0.076600000000     0.467190000000     0.022030000000     0          
H        H      0.157025000000     0.445240000000     0.467270000000     0          
H        H      0.434425000000     0.022040000000     0.554760000000     0          
H        H      0.423405000000     0.532810000000     0.977960000000     0          
C        C      0.466560000000     0.566470000000     0.465430000000     0          
C        C      0.183315000000     0.898930000000     0.433520000000     0          
C        C      0.233865000000     0.534520000000     0.101020000000     0          
C        C      0.033440000000     0.433530000000     0.534560000000     0          
C        C      0.316685000000     0.101070000000     0.566480000000     0          
C        C      0.266135000000     0.465480000000     0.898970000000     0          
C        C      0.121455000000     0.563970000000     0.391090000000     0          
C        C      0.339495000000     0.827110000000     0.436030000000     0          
C        C      0.425955000000     0.608940000000     0.172930000000     0          
C        C      0.378545000000     0.436030000000     0.608910000000     0          
C        C      0.160505000000     0.172890000000     0.563970000000     0          
C        C      0.074045000000     0.391060000000     0.827070000000     0          
C        C      0.412175000000     0.530840000000     0.517960000000     0          
C        C      0.146735000000     0.987110000000     0.469140000000     0          
C        C      0.153180000000     0.481950000000     0.012870000000     0          
C        C      0.087825000000     0.469160000000     0.482040000000     0          
C        C      0.353260000000     0.012890000000     0.530860000000     0          
C        C      0.346820000000     0.518050000000     0.987120000000     0          
C        C      0.057445000000     0.533780000000     0.447310000000     0          
C        C      0.290570000000     0.913540000000     0.466220000000     0          
C        C      0.333830000000     0.552710000000     0.086480000000     0          
C        C      0.442555000000     0.466220000000     0.552690000000     0          
C        C      0.209430000000     0.086460000000     0.533780000000     0          
C        C      0.166170000000     0.447290000000     0.913520000000     0          
O        O      0.430855000000     0.628370000000     0.435050000000     0          
O        O      0.116665000000     0.806630000000     0.371630000000     0          
O        O      0.213365000000     0.564930000000     0.193320000000     0          
O        O      0.069145000000     0.371630000000     0.564950000000     0          
O        O      0.383335000000     0.193370000000     0.628370000000     0          
O        O      0.286635000000     0.435070000000     0.806680000000     0          
O        O      0.095760000000     0.626200000000     0.361730000000     0          
O        O      0.282670000000     0.735530000000     0.373780000000     0          
O        O      0.414880000000     0.638280000000     0.264500000000     0          
O        O      0.404240000000     0.373800000000     0.638270000000     0          
O        O      0.217325000000     0.264470000000     0.626220000000     0          
O        O      0.085120000000     0.361710000000     0.735500000000     0          
O        O      0.199490000000     0.530530000000     0.372720000000     0          
O        O      0.434245000000     0.842180000000     0.469480000000     0          
O        O      0.013190000000     0.627320000000     0.157900000000     0          
O        O      0.300510000000     0.469470000000     0.627280000000     0          
O        O      0.065755000000     0.157820000000     0.530520000000     0          
O        O      0.486815000000     0.372680000000     0.842100000000     0          
Mg       Mg     0.508755000000     0.731770000000     0.406050000000     0          
Mg       Mg     0.642905000000     0.674240000000     0.268210000000     0          
Mg       Mg     0.805715000000     0.593920000000     0.325740000000     0          
Mg       Mg     0.991245000000     0.268230000000     0.593950000000     0          
Mg       Mg     0.857095000000     0.325760000000     0.731790000000     0          
Mg       Mg     0.694285000000     0.406080000000     0.674260000000     0          
H        H      0.842975000000     0.554750000000     0.532730000000     0          
H        H      0.565575000000     0.977960000000     0.445240000000     0          
H        H      0.576600000000     0.467190000000     0.022030000000     0          
H        H      0.657025000000     0.445240000000     0.467270000000     0          
H        H      0.934425000000     0.022040000000     0.554760000000     0          
H        H      0.923405000000     0.532810000000     0.977960000000     0          
C        C      0.966560000000     0.566470000000     0.465430000000     0          
C        C      0.683315000000     0.898930000000     0.433520000000     0          
C        C      0.733865000000     0.534520000000     0.101020000000     0          
C        C      0.533440000000     0.433530000000     0.534560000000     0          
C        C      0.816685000000     0.101070000000     0.566480000000     0          
C        C      0.766135000000     0.465480000000     0.898970000000     0          
C        C      0.621455000000     0.563970000000     0.391090000000     0          
C        C      0.839495000000     0.827110000000     0.436030000000     0          
C        C      0.925955000000     0.608940000000     0.172930000000     0          
C        C      0.878545000000     0.436030000000     0.608910000000     0          
C        C      0.660505000000     0.172890000000     0.563970000000     0          
C        C      0.574045000000     0.391060000000     0.827070000000     0          
C        C      0.912175000000     0.530840000000     0.517960000000     0          
C        C      0.646735000000     0.987110000000     0.469140000000     0          
C        C      0.653180000000     0.481950000000     0.012870000000     0          
C        C      0.587825000000     0.469160000000     0.482040000000     0          
C        C      0.853260000000     0.012890000000     0.530860000000     0          
C        C      0.846820000000     0.518050000000     0.987120000000     0          
C        C      0.557445000000     0.533780000000     0.447310000000     0          
C        C      0.790570000000     0.913540000000     0.466220000000     0          
C        C      0.833830000000     0.552710000000     0.086480000000     0          
C        C      0.942555000000     0.466220000000     0.552690000000     0          
C        C      0.709430000000     0.086460000000     0.533780000000     0          
C        C      0.666170000000     0.447290000000     0.913520000000     0          
O        O      0.930855000000     0.628370000000     0.435050000000     0          
O        O      0.616665000000     0.806630000000     0.371630000000     0          
O        O      0.713365000000     0.564930000000     0.193320000000     0          
O        O      0.569145000000     0.371630000000     0.564950000000     0          
O        O      0.883335000000     0.193370000000     0.628370000000     0          
O        O      0.786635000000     0.435070000000     0.806680000000     0          
O        O      0.595760000000     0.626200000000     0.361730000000     0          
O        O      0.782670000000     0.735530000000     0.373780000000     0          
O        O      0.914880000000     0.638280000000     0.264500000000     0          
O        O      0.904240000000     0.373800000000     0.638270000000     0          
O        O      0.717325000000     0.264470000000     0.626220000000     0          
O        O      0.585120000000     0.361710000000     0.735500000000     0          
O        O      0.699490000000     0.530530000000     0.372720000000     0          
O        O      0.934245000000     0.842180000000     0.469480000000     0          
O        O      0.513190000000     0.627320000000     0.157900000000     0          
O        O      0.800510000000     0.469470000000     0.627280000000     0          
O        O      0.565755000000     0.157820000000     0.530520000000     0          
O        O      0.986815000000     0.372680000000     0.842100000000     0          


